Circuit: * C:\Users\joser\Downloads\pmt2_fachartikel-master\pmt2_fachartikel-master\Simulation\TEst.asc

Direct Newton iteration for .op point succeeded.

Date: Sat Feb 05 14:40:33 2022
Total elapsed time: 0.310 seconds.

tnom = 27
temp = 27
method = modified trap
totiter = 5757
traniter = 5734
tranpoints = 2323
accept = 1966
rejected = 357
matrix size = 72
fillins = 34
solver = Normal
Thread vector: 25.5/12.1[4] 4.3/5.0[1] 2.0/3.7[1] 0.3/2.6[1]  2592/500
Matrix Compiler1: 5.10 KB object code size  1.3/0.6/[0.3]
Matrix Compiler2: 7.21 KB object code size  0.7/1.0/[0.3]

